WIDTH=8;
DEPTH=256;

ADDRESS_RADIX=HEX;
DATA_RADIX=HEX;

CONTENT BEGIN
    00 : EF;
    01 : 44;
    02 : AE;
    03 : 74;
    04 : 8A;
    05 : 77;
    06 : 8F;
    07 : E2;
    08 : 31;
    09 : 87;
    0A : 8E;
    0B : 41;
    0C : 99;
    0D : CC;
    0E : F4;
    0F : 40;
    10 : BF;
    11 : 77;
    12 : 4B;
    13 : 45;
    14 : 4D;
    15 : CF;
    16 : B6;
    17 : E8;
    18 : F2;
    19 : 28;
    1A : 5B;
    1B : A6;
    1C : 8C;
    1D : DB;
    1E : 56;
    1F : AC;
    20 : 4A;
    21 : 5C;
    22 : AA;
    23 : 89;
    24 : C9;
    25 : BD;
    26 : 10;
    27 : 80;
    28 : 48;
    29 : F2;
    2A : 99;
    2B : 31;
    2C : 91;
    2D : 00;
    2E : C1;
    2F : 8B;
    30 : 1C;
    31 : 2F;
    32 : 88;
    33 : 26;
    34 : 6B;
    35 : 87;
    36 : 81;
    37 : EB;
    38 : BC;
    39 : 2F;
    3A : 3E;
    3B : A8;
    3C : 79;
    3D : 8A;
    3E : EF;
    3F : F3;
    40 : EE;
    41 : 29;
    42 : 4D;
    43 : A1;
    44 : B8;
    45 : 41;
    46 : F6;
    47 : 69;
    48 : 1F;
    49 : A3;
    4A : 95;
    4B : F5;
    4C : E4;
    4D : 06;
    4E : 08;
    4F : 9A;
    50 : 58;
    51 : E6;
    52 : 40;
    53 : F0;
    54 : 46;
    55 : 3F;
    56 : 71;
    57 : D9;
    58 : E5;
    59 : 1A;
    5A : BC;
    5B : C8;
    5C : 1A;
    5D : 87;
    5E : 41;
    5F : 23;
    60 : 47;
    61 : 6A;
    62 : 61;
    63 : 83;
    64 : 9C;
    65 : 5C;
    66 : 8E;
    67 : 2D;
    68 : 67;
    69 : FC;
    6A : 67;
    6B : 25;
    6C : 47;
    6D : 92;
    6E : 67;
    6F : CB;
    70 : B6;
    71 : EB;
    72 : 83;
    73 : D6;
    74 : 0F;
    75 : 23;
    76 : 9F;
    77 : 13;
    78 : 08;
    79 : 71;
    7A : 2C;
    7B : 91;
    7C : 9F;
    7D : 66;
    7E : DF;
    7F : A6;
    80 : 70;
    81 : 72;
    82 : 35;
    83 : D8;
    84 : F1;
    85 : 85;
    86 : 6A;
    87 : F6;
    88 : BA;
    89 : FB;
    8A : 2A;
    8B : E8;
    8C : 40;
    8D : 24;
    8E : 68;
    8F : 03;
    90 : 66;
    91 : DC;
    92 : DE;
    93 : 8F;
    94 : 8A;
    95 : 17;
    96 : 79;
    97 : 29;
    98 : A7;
    99 : 31;
    9A : 36;
    9B : 16;
    9C : 9E;
    9D : 97;
    9E : A6;
    9F : 9D;
    A0 : 46;
    A1 : 3F;
    A2 : DB;
    A3 : 53;
    A4 : 4A;
    A5 : B1;
    A6 : 7C;
    A7 : E1;
    A8 : 65;
    A9 : 23;
    AA : EC;
    AB : 30;
    AC : 3E;
    AD : 61;
    AE : 35;
    AF : 91;
    B0 : 84;
    B1 : 09;
    B2 : 24;
    B3 : 9F;
    B4 : 6E;
    B5 : 99;
    B6 : 11;
    B7 : EE;
    B8 : BC;
    B9 : 90;
    BA : E9;
    BB : 98;
    BC : 27;
    BD : 65;
    BE : 9F;
    BF : 69;
    C0 : 81;
    C1 : 0D;
    C2 : 27;
    C3 : E3;
    C4 : FB;
    C5 : 97;
    C6 : E3;
    C7 : 59;
    C8 : F0;
    C9 : 15;
    CA : 30;
    CB : 04;
    CC : 68;
    CD : 56;
    CE : 1C;
    CF : C8;
    D0 : 27;
    D1 : 82;
    D2 : 3F;
    D3 : 5A;
    D4 : 70;
    D5 : C6;
    D6 : B3;
    D7 : 16;
    D8 : 5C;
    D9 : 32;
    DA : 0D;
    DB : 11;
    DC : CB;
    DD : E9;
    DE : F8;
    DF : 5D;
    E0 : 32;
    E1 : 9F;
    E2 : DC;
    E3 : E4;
    E4 : A4;
    E5 : A4;
    E6 : 44;
    E7 : E3;
    E8 : B6;
    E9 : 6E;
    EA : 50;
    EB : F4;
    EC : CC;
    ED : D4;
    EE : 1E;
    EF : 66;
    [F0..FF] : 00;
END;
